<?xml version="1.0"?>

<routes xmlns:xsi="http://www.w3.org/2001/XMLSchema-instance" xsi:noNamespaceSchemaLocation="http://sumo.dlr.de/xsd/routes_file.xsd">
    <trip id="0" depart="0" from="edge-4-0" to="edge-0-2"/>
    <trip id="1" depart="4" from="edge-3-0" to="edge-0-4"/>
    <trip id="2" depart="6" from="edge-2-0" to="edge-0-3"/>
    <trip id="3" depart="8" from="edge-1-0" to="edge-0-4"/>
    <trip id="4" depart="10" from="edge-1-0" to="edge-0-4"/>
    <trip id="5" depart="12" from="edge-1-0" to="edge-0-3"/>
    <trip id="6" depart="12" from="edge-4-0" to="edge-0-3"/>
    <trip id="7" depart="13" from="edge-2-0" to="edge-0-1"/>
    <trip id="8" depart="13" from="edge-4-0" to="edge-0-2"/>
    <trip id="9" depart="16" from="edge-2-0" to="edge-0-4"/>
    <trip id="10" depart="19" from="edge-4-0" to="edge-0-2"/>
    <trip id="11" depart="20" from="edge-3-0" to="edge-0-1"/>
    <trip id="12" depart="24" from="edge-3-0" to="edge-0-1"/>
    <trip id="13" depart="27" from="edge-4-0" to="edge-0-2"/>
    <trip id="14" depart="28" from="edge-1-0" to="edge-0-3"/>
    <trip id="15" depart="28" from="edge-3-0" to="edge-0-2"/>
    <trip id="16" depart="29" from="edge-1-0" to="edge-0-4"/>
    <trip id="17" depart="30" from="edge-1-0" to="edge-0-4"/>
    <trip id="18" depart="30" from="edge-2-0" to="edge-0-3"/>
    <trip id="19" depart="30" from="edge-3-0" to="edge-0-4"/>
    <trip id="20" depart="31" from="edge-4-0" to="edge-0-1"/>
    <trip id="21" depart="32" from="edge-1-0" to="edge-0-2"/>
    <trip id="22" depart="35" from="edge-3-0" to="edge-0-4"/>
    <trip id="23" depart="35" from="edge-4-0" to="edge-0-2"/>
    <trip id="24" depart="36" from="edge-3-0" to="edge-0-1"/>
    <trip id="25" depart="37" from="edge-3-0" to="edge-0-4"/>
    <trip id="26" depart="38" from="edge-2-0" to="edge-0-3"/>
    <trip id="27" depart="39" from="edge-1-0" to="edge-0-3"/>
    <trip id="28" depart="41" from="edge-2-0" to="edge-0-4"/>
    <trip id="29" depart="41" from="edge-3-0" to="edge-0-4"/>
    <trip id="30" depart="42" from="edge-1-0" to="edge-0-2"/>
    <trip id="31" depart="44" from="edge-2-0" to="edge-0-1"/>
    <trip id="32" depart="44" from="edge-4-0" to="edge-0-2"/>
    <trip id="33" depart="45" from="edge-3-0" to="edge-0-4"/>
    <trip id="34" depart="46" from="edge-3-0" to="edge-0-4"/>
    <trip id="35" depart="47" from="edge-1-0" to="edge-0-4"/>
    <trip id="36" depart="47" from="edge-4-0" to="edge-0-2"/>
    <trip id="37" depart="49" from="edge-3-0" to="edge-0-1"/>
    <trip id="38" depart="49" from="edge-4-0" to="edge-0-3"/>
    <trip id="39" depart="51" from="edge-3-0" to="edge-0-1"/>
    <trip id="40" depart="52" from="edge-3-0" to="edge-0-4"/>
    <trip id="41" depart="55" from="edge-2-0" to="edge-0-3"/>
    <trip id="42" depart="56" from="edge-2-0" to="edge-0-4"/>
    <trip id="43" depart="57" from="edge-2-0" to="edge-0-4"/>
    <trip id="44" depart="57" from="edge-4-0" to="edge-0-2"/>
    <trip id="45" depart="60" from="edge-1-0" to="edge-0-2"/>
    <trip id="46" depart="64" from="edge-4-0" to="edge-0-2"/>
    <trip id="47" depart="66" from="edge-1-0" to="edge-0-3"/>
    <trip id="48" depart="66" from="edge-2-0" to="edge-0-3"/>
    <trip id="49" depart="67" from="edge-4-0" to="edge-0-2"/>
    <trip id="50" depart="68" from="edge-1-0" to="edge-0-2"/>
    <trip id="51" depart="70" from="edge-4-0" to="edge-0-1"/>
    <trip id="52" depart="71" from="edge-1-0" to="edge-0-4"/>
    <trip id="53" depart="71" from="edge-3-0" to="edge-0-2"/>
    <trip id="54" depart="71" from="edge-4-0" to="edge-0-3"/>
    <trip id="55" depart="73" from="edge-1-0" to="edge-0-3"/>
    <trip id="56" depart="73" from="edge-2-0" to="edge-0-3"/>
    <trip id="57" depart="75" from="edge-3-0" to="edge-0-4"/>
    <trip id="58" depart="79" from="edge-1-0" to="edge-0-2"/>
    <trip id="59" depart="80" from="edge-4-0" to="edge-0-2"/>
    <trip id="60" depart="81" from="edge-4-0" to="edge-0-2"/>
    <trip id="61" depart="82" from="edge-2-0" to="edge-0-3"/>
    <trip id="62" depart="84" from="edge-4-0" to="edge-0-1"/>
    <trip id="63" depart="86" from="edge-1-0" to="edge-0-2"/>
    <trip id="64" depart="87" from="edge-1-0" to="edge-0-3"/>
    <trip id="65" depart="88" from="edge-2-0" to="edge-0-1"/>
    <trip id="66" depart="88" from="edge-3-0" to="edge-0-2"/>
    <trip id="67" depart="91" from="edge-1-0" to="edge-0-2"/>
    <trip id="68" depart="93" from="edge-4-0" to="edge-0-3"/>
    <trip id="69" depart="94" from="edge-1-0" to="edge-0-3"/>
    <trip id="70" depart="94" from="edge-3-0" to="edge-0-1"/>
    <trip id="71" depart="96" from="edge-1-0" to="edge-0-4"/>
    <trip id="72" depart="96" from="edge-3-0" to="edge-0-1"/>
    <trip id="73" depart="96" from="edge-4-0" to="edge-0-2"/>
    <trip id="74" depart="97" from="edge-3-0" to="edge-0-1"/>
    <trip id="75" depart="97" from="edge-4-0" to="edge-0-2"/>
    <trip id="76" depart="98" from="edge-4-0" to="edge-0-1"/>
    <trip id="77" depart="99" from="edge-1-0" to="edge-0-3"/>
    <trip id="78" depart="100" from="edge-2-0" to="edge-0-1"/>
    <trip id="79" depart="100" from="edge-3-0" to="edge-0-2"/>
    <trip id="80" depart="101" from="edge-2-0" to="edge-0-1"/>
    <trip id="81" depart="101" from="edge-3-0" to="edge-0-4"/>
    <trip id="82" depart="103" from="edge-3-0" to="edge-0-1"/>
    <trip id="83" depart="104" from="edge-2-0" to="edge-0-1"/>
    <trip id="84" depart="105" from="edge-4-0" to="edge-0-3"/>
    <trip id="85" depart="108" from="edge-4-0" to="edge-0-3"/>
    <trip id="86" depart="111" from="edge-2-0" to="edge-0-4"/>
    <trip id="87" depart="112" from="edge-1-0" to="edge-0-2"/>
    <trip id="88" depart="117" from="edge-3-0" to="edge-0-2"/>
    <trip id="89" depart="117" from="edge-4-0" to="edge-0-2"/>
    <trip id="90" depart="121" from="edge-2-0" to="edge-0-1"/>
    <trip id="91" depart="121" from="edge-4-0" to="edge-0-1"/>
    <trip id="92" depart="126" from="edge-3-0" to="edge-0-4"/>
    <trip id="93" depart="126" from="edge-4-0" to="edge-0-1"/>
    <trip id="94" depart="127" from="edge-2-0" to="edge-0-4"/>
    <trip id="95" depart="128" from="edge-2-0" to="edge-0-3"/>
    <trip id="96" depart="130" from="edge-1-0" to="edge-0-3"/>
    <trip id="97" depart="133" from="edge-1-0" to="edge-0-4"/>
    <trip id="98" depart="133" from="edge-3-0" to="edge-0-2"/>
    <trip id="99" depart="134" from="edge-2-0" to="edge-0-3"/>
    <trip id="100" depart="136" from="edge-3-0" to="edge-0-1"/>
    <trip id="101" depart="138" from="edge-2-0" to="edge-0-1"/>
    <trip id="102" depart="140" from="edge-2-0" to="edge-0-4"/>
    <trip id="103" depart="142" from="edge-2-0" to="edge-0-1"/>
    <trip id="104" depart="143" from="edge-3-0" to="edge-0-2"/>
    <trip id="105" depart="144" from="edge-3-0" to="edge-0-4"/>
    <trip id="106" depart="145" from="edge-2-0" to="edge-0-1"/>
    <trip id="107" depart="146" from="edge-2-0" to="edge-0-1"/>
    <trip id="108" depart="147" from="edge-1-0" to="edge-0-3"/>
    <trip id="109" depart="148" from="edge-2-0" to="edge-0-4"/>
    <trip id="110" depart="149" from="edge-2-0" to="edge-0-1"/>
    <trip id="111" depart="149" from="edge-4-0" to="edge-0-2"/>
    <trip id="112" depart="150" from="edge-2-0" to="edge-0-1"/>
    <trip id="113" depart="150" from="edge-4-0" to="edge-0-3"/>
    <trip id="114" depart="151" from="edge-4-0" to="edge-0-3"/>
    <trip id="115" depart="154" from="edge-2-0" to="edge-0-1"/>
    <trip id="116" depart="154" from="edge-4-0" to="edge-0-2"/>
    <trip id="117" depart="155" from="edge-3-0" to="edge-0-1"/>
    <trip id="118" depart="155" from="edge-4-0" to="edge-0-2"/>
    <trip id="119" depart="156" from="edge-3-0" to="edge-0-2"/>
    <trip id="120" depart="157" from="edge-2-0" to="edge-0-4"/>
    <trip id="121" depart="158" from="edge-1-0" to="edge-0-3"/>
    <trip id="122" depart="158" from="edge-3-0" to="edge-0-1"/>
    <trip id="123" depart="159" from="edge-4-0" to="edge-0-2"/>
    <trip id="124" depart="161" from="edge-1-0" to="edge-0-4"/>
    <trip id="125" depart="166" from="edge-4-0" to="edge-0-3"/>
    <trip id="126" depart="169" from="edge-2-0" to="edge-0-1"/>
    <trip id="127" depart="170" from="edge-1-0" to="edge-0-3"/>
    <trip id="128" depart="171" from="edge-2-0" to="edge-0-4"/>
    <trip id="129" depart="171" from="edge-4-0" to="edge-0-2"/>
    <trip id="130" depart="172" from="edge-1-0" to="edge-0-2"/>
    <trip id="131" depart="173" from="edge-1-0" to="edge-0-3"/>
    <trip id="132" depart="173" from="edge-3-0" to="edge-0-2"/>
    <trip id="133" depart="175" from="edge-4-0" to="edge-0-1"/>
    <trip id="134" depart="178" from="edge-3-0" to="edge-0-1"/>
    <trip id="135" depart="179" from="edge-4-0" to="edge-0-3"/>
    <trip id="136" depart="180" from="edge-1-0" to="edge-0-2"/>
    <trip id="137" depart="180" from="edge-4-0" to="edge-0-3"/>
    <trip id="138" depart="182" from="edge-2-0" to="edge-0-4"/>
    <trip id="139" depart="182" from="edge-4-0" to="edge-0-1"/>
    <trip id="140" depart="183" from="edge-4-0" to="edge-0-2"/>
    <trip id="141" depart="184" from="edge-4-0" to="edge-0-3"/>
    <trip id="142" depart="185" from="edge-2-0" to="edge-0-3"/>
    <trip id="143" depart="189" from="edge-3-0" to="edge-0-2"/>
    <trip id="144" depart="190" from="edge-2-0" to="edge-0-4"/>
    <trip id="145" depart="190" from="edge-4-0" to="edge-0-1"/>
    <trip id="146" depart="191" from="edge-4-0" to="edge-0-3"/>
    <trip id="147" depart="192" from="edge-2-0" to="edge-0-1"/>
    <trip id="148" depart="192" from="edge-3-0" to="edge-0-4"/>
    <trip id="149" depart="193" from="edge-1-0" to="edge-0-3"/>
    <trip id="150" depart="193" from="edge-4-0" to="edge-0-1"/>
    <trip id="151" depart="194" from="edge-1-0" to="edge-0-2"/>
    <trip id="152" depart="195" from="edge-4-0" to="edge-0-1"/>
    <trip id="153" depart="197" from="edge-4-0" to="edge-0-3"/>
    <trip id="154" depart="198" from="edge-1-0" to="edge-0-3"/>
    <trip id="155" depart="198" from="edge-4-0" to="edge-0-1"/>
    <trip id="156" depart="199" from="edge-1-0" to="edge-0-3"/>
    <trip id="157" depart="200" from="edge-1-0" to="edge-0-2"/>
    <trip id="158" depart="201" from="edge-1-0" to="edge-0-2"/>
    <trip id="159" depart="202" from="edge-4-0" to="edge-0-1"/>
    <trip id="160" depart="204" from="edge-2-0" to="edge-0-3"/>
    <trip id="161" depart="204" from="edge-4-0" to="edge-0-3"/>
    <trip id="162" depart="205" from="edge-1-0" to="edge-0-2"/>
    <trip id="163" depart="205" from="edge-3-0" to="edge-0-2"/>
    <trip id="164" depart="207" from="edge-1-0" to="edge-0-4"/>
    <trip id="165" depart="207" from="edge-2-0" to="edge-0-1"/>
    <trip id="166" depart="209" from="edge-2-0" to="edge-0-3"/>
    <trip id="167" depart="209" from="edge-3-0" to="edge-0-4"/>
    <trip id="168" depart="209" from="edge-4-0" to="edge-0-1"/>
    <trip id="169" depart="210" from="edge-3-0" to="edge-0-1"/>
    <trip id="170" depart="210" from="edge-4-0" to="edge-0-1"/>
    <trip id="171" depart="211" from="edge-1-0" to="edge-0-4"/>
    <trip id="172" depart="211" from="edge-3-0" to="edge-0-1"/>
    <trip id="173" depart="211" from="edge-4-0" to="edge-0-3"/>
    <trip id="174" depart="212" from="edge-4-0" to="edge-0-1"/>
    <trip id="175" depart="216" from="edge-4-0" to="edge-0-3"/>
    <trip id="176" depart="220" from="edge-1-0" to="edge-0-3"/>
    <trip id="177" depart="220" from="edge-3-0" to="edge-0-4"/>
    <trip id="178" depart="221" from="edge-2-0" to="edge-0-1"/>
    <trip id="179" depart="224" from="edge-1-0" to="edge-0-4"/>
    <trip id="180" depart="224" from="edge-4-0" to="edge-0-3"/>
    <trip id="181" depart="229" from="edge-3-0" to="edge-0-2"/>
    <trip id="182" depart="230" from="edge-1-0" to="edge-0-3"/>
    <trip id="183" depart="231" from="edge-1-0" to="edge-0-4"/>
    <trip id="184" depart="233" from="edge-4-0" to="edge-0-1"/>
    <trip id="185" depart="236" from="edge-2-0" to="edge-0-3"/>
    <trip id="186" depart="237" from="edge-3-0" to="edge-0-2"/>
    <trip id="187" depart="238" from="edge-1-0" to="edge-0-4"/>
    <trip id="188" depart="238" from="edge-4-0" to="edge-0-3"/>
    <trip id="189" depart="242" from="edge-4-0" to="edge-0-1"/>
    <trip id="190" depart="243" from="edge-3-0" to="edge-0-4"/>
    <trip id="191" depart="244" from="edge-4-0" to="edge-0-1"/>
    <trip id="192" depart="245" from="edge-4-0" to="edge-0-2"/>
    <trip id="193" depart="246" from="edge-3-0" to="edge-0-4"/>
    <trip id="194" depart="247" from="edge-1-0" to="edge-0-4"/>
    <trip id="195" depart="247" from="edge-3-0" to="edge-0-1"/>
    <trip id="196" depart="248" from="edge-2-0" to="edge-0-3"/>
    <trip id="197" depart="249" from="edge-1-0" to="edge-0-2"/>
    <trip id="198" depart="249" from="edge-2-0" to="edge-0-1"/>
    <trip id="199" depart="249" from="edge-4-0" to="edge-0-1"/>
    <trip id="200" depart="250" from="edge-1-0" to="edge-0-2"/>
    <trip id="201" depart="250" from="edge-3-0" to="edge-0-4"/>
    <trip id="202" depart="252" from="edge-1-0" to="edge-0-4"/>
    <trip id="203" depart="252" from="edge-4-0" to="edge-0-3"/>
    <trip id="204" depart="257" from="edge-1-0" to="edge-0-2"/>
    <trip id="205" depart="258" from="edge-2-0" to="edge-0-4"/>
    <trip id="206" depart="258" from="edge-3-0" to="edge-0-4"/>
    <trip id="207" depart="259" from="edge-2-0" to="edge-0-3"/>
    <trip id="208" depart="261" from="edge-1-0" to="edge-0-4"/>
    <trip id="209" depart="262" from="edge-3-0" to="edge-0-1"/>
    <trip id="210" depart="264" from="edge-2-0" to="edge-0-3"/>
    <trip id="211" depart="267" from="edge-4-0" to="edge-0-1"/>
    <trip id="212" depart="269" from="edge-1-0" to="edge-0-2"/>
    <trip id="213" depart="269" from="edge-4-0" to="edge-0-2"/>
    <trip id="214" depart="270" from="edge-3-0" to="edge-0-4"/>
    <trip id="215" depart="271" from="edge-1-0" to="edge-0-4"/>
    <trip id="216" depart="271" from="edge-3-0" to="edge-0-1"/>
    <trip id="217" depart="271" from="edge-4-0" to="edge-0-1"/>
    <trip id="218" depart="272" from="edge-4-0" to="edge-0-3"/>
    <trip id="219" depart="273" from="edge-2-0" to="edge-0-3"/>
    <trip id="220" depart="273" from="edge-3-0" to="edge-0-2"/>
    <trip id="221" depart="274" from="edge-4-0" to="edge-0-2"/>
    <trip id="222" depart="275" from="edge-4-0" to="edge-0-1"/>
    <trip id="223" depart="276" from="edge-4-0" to="edge-0-1"/>
    <trip id="224" depart="278" from="edge-2-0" to="edge-0-4"/>
    <trip id="225" depart="278" from="edge-3-0" to="edge-0-2"/>
    <trip id="226" depart="279" from="edge-2-0" to="edge-0-4"/>
    <trip id="227" depart="280" from="edge-3-0" to="edge-0-4"/>
    <trip id="228" depart="282" from="edge-1-0" to="edge-0-4"/>
    <trip id="229" depart="282" from="edge-3-0" to="edge-0-4"/>
    <trip id="230" depart="286" from="edge-4-0" to="edge-0-2"/>
    <trip id="231" depart="288" from="edge-4-0" to="edge-0-3"/>
    <trip id="232" depart="289" from="edge-4-0" to="edge-0-1"/>
    <trip id="233" depart="290" from="edge-1-0" to="edge-0-3"/>
    <trip id="234" depart="292" from="edge-3-0" to="edge-0-2"/>
    <trip id="235" depart="293" from="edge-1-0" to="edge-0-4"/>
    <trip id="236" depart="293" from="edge-4-0" to="edge-0-3"/>
    <trip id="237" depart="295" from="edge-2-0" to="edge-0-1"/>
    <trip id="238" depart="296" from="edge-2-0" to="edge-0-3"/>
    <trip id="239" depart="297" from="edge-4-0" to="edge-0-3"/>
    <trip id="240" depart="298" from="edge-2-0" to="edge-0-4"/>
    <trip id="241" depart="299" from="edge-3-0" to="edge-0-1"/>
    <trip id="242" depart="301" from="edge-1-0" to="edge-0-3"/>
    <trip id="243" depart="301" from="edge-3-0" to="edge-0-4"/>
    <trip id="244" depart="302" from="edge-2-0" to="edge-0-3"/>
    <trip id="245" depart="302" from="edge-4-0" to="edge-0-1"/>
    <trip id="246" depart="304" from="edge-2-0" to="edge-0-1"/>
    <trip id="247" depart="304" from="edge-4-0" to="edge-0-3"/>
    <trip id="248" depart="305" from="edge-2-0" to="edge-0-4"/>
    <trip id="249" depart="307" from="edge-3-0" to="edge-0-1"/>
    <trip id="250" depart="308" from="edge-4-0" to="edge-0-2"/>
    <trip id="251" depart="309" from="edge-2-0" to="edge-0-1"/>
    <trip id="252" depart="310" from="edge-2-0" to="edge-0-4"/>
    <trip id="253" depart="311" from="edge-4-0" to="edge-0-1"/>
    <trip id="254" depart="314" from="edge-1-0" to="edge-0-3"/>
    <trip id="255" depart="315" from="edge-3-0" to="edge-0-2"/>
    <trip id="256" depart="316" from="edge-2-0" to="edge-0-1"/>
    <trip id="257" depart="318" from="edge-1-0" to="edge-0-2"/>
    <trip id="258" depart="318" from="edge-2-0" to="edge-0-4"/>
    <trip id="259" depart="319" from="edge-2-0" to="edge-0-4"/>
    <trip id="260" depart="319" from="edge-3-0" to="edge-0-1"/>
    <trip id="261" depart="320" from="edge-2-0" to="edge-0-3"/>
    <trip id="262" depart="321" from="edge-4-0" to="edge-0-1"/>
    <trip id="263" depart="322" from="edge-4-0" to="edge-0-2"/>
    <trip id="264" depart="323" from="edge-1-0" to="edge-0-2"/>
    <trip id="265" depart="324" from="edge-1-0" to="edge-0-3"/>
    <trip id="266" depart="324" from="edge-2-0" to="edge-0-4"/>
    <trip id="267" depart="324" from="edge-3-0" to="edge-0-2"/>
    <trip id="268" depart="326" from="edge-3-0" to="edge-0-1"/>
    <trip id="269" depart="327" from="edge-2-0" to="edge-0-1"/>
    <trip id="270" depart="328" from="edge-3-0" to="edge-0-2"/>
    <trip id="271" depart="328" from="edge-4-0" to="edge-0-3"/>
    <trip id="272" depart="329" from="edge-3-0" to="edge-0-4"/>
    <trip id="273" depart="330" from="edge-1-0" to="edge-0-4"/>
    <trip id="274" depart="332" from="edge-2-0" to="edge-0-4"/>
    <trip id="275" depart="338" from="edge-1-0" to="edge-0-4"/>
    <trip id="276" depart="338" from="edge-2-0" to="edge-0-1"/>
    <trip id="277" depart="339" from="edge-2-0" to="edge-0-4"/>
    <trip id="278" depart="339" from="edge-4-0" to="edge-0-2"/>
    <trip id="279" depart="340" from="edge-4-0" to="edge-0-3"/>
    <trip id="280" depart="342" from="edge-3-0" to="edge-0-4"/>
    <trip id="281" depart="343" from="edge-1-0" to="edge-0-2"/>
    <trip id="282" depart="344" from="edge-3-0" to="edge-0-1"/>
    <trip id="283" depart="346" from="edge-1-0" to="edge-0-3"/>
    <trip id="284" depart="346" from="edge-2-0" to="edge-0-4"/>
    <trip id="285" depart="346" from="edge-3-0" to="edge-0-1"/>
    <trip id="286" depart="349" from="edge-2-0" to="edge-0-3"/>
    <trip id="287" depart="349" from="edge-4-0" to="edge-0-3"/>
    <trip id="288" depart="351" from="edge-1-0" to="edge-0-3"/>
    <trip id="289" depart="353" from="edge-2-0" to="edge-0-4"/>
    <trip id="290" depart="355" from="edge-1-0" to="edge-0-4"/>
    <trip id="291" depart="356" from="edge-2-0" to="edge-0-3"/>
    <trip id="292" depart="356" from="edge-3-0" to="edge-0-4"/>
    <trip id="293" depart="356" from="edge-4-0" to="edge-0-3"/>
    <trip id="294" depart="357" from="edge-4-0" to="edge-0-2"/>
    <trip id="295" depart="359" from="edge-3-0" to="edge-0-2"/>
    <trip id="296" depart="360" from="edge-2-0" to="edge-0-3"/>
    <trip id="297" depart="361" from="edge-4-0" to="edge-0-2"/>
    <trip id="298" depart="363" from="edge-4-0" to="edge-0-3"/>
    <trip id="299" depart="364" from="edge-2-0" to="edge-0-4"/>
    <trip id="300" depart="364" from="edge-3-0" to="edge-0-2"/>
    <trip id="301" depart="364" from="edge-4-0" to="edge-0-1"/>
    <trip id="302" depart="365" from="edge-4-0" to="edge-0-3"/>
    <trip id="303" depart="368" from="edge-2-0" to="edge-0-3"/>
    <trip id="304" depart="368" from="edge-4-0" to="edge-0-1"/>
    <trip id="305" depart="370" from="edge-4-0" to="edge-0-2"/>
    <trip id="306" depart="371" from="edge-3-0" to="edge-0-4"/>
    <trip id="307" depart="375" from="edge-3-0" to="edge-0-4"/>
    <trip id="308" depart="376" from="edge-3-0" to="edge-0-2"/>
    <trip id="309" depart="377" from="edge-2-0" to="edge-0-4"/>
    <trip id="310" depart="379" from="edge-2-0" to="edge-0-3"/>
    <trip id="311" depart="379" from="edge-4-0" to="edge-0-3"/>
    <trip id="312" depart="383" from="edge-4-0" to="edge-0-3"/>
    <trip id="313" depart="384" from="edge-3-0" to="edge-0-4"/>
    <trip id="314" depart="385" from="edge-2-0" to="edge-0-1"/>
    <trip id="315" depart="386" from="edge-1-0" to="edge-0-3"/>
    <trip id="316" depart="387" from="edge-3-0" to="edge-0-1"/>
    <trip id="317" depart="389" from="edge-4-0" to="edge-0-3"/>
    <trip id="318" depart="391" from="edge-2-0" to="edge-0-3"/>
    <trip id="319" depart="391" from="edge-4-0" to="edge-0-2"/>
    <trip id="320" depart="392" from="edge-2-0" to="edge-0-4"/>
    <trip id="321" depart="392" from="edge-4-0" to="edge-0-2"/>
    <trip id="322" depart="394" from="edge-2-0" to="edge-0-1"/>
    <trip id="323" depart="394" from="edge-3-0" to="edge-0-1"/>
    <trip id="324" depart="394" from="edge-4-0" to="edge-0-1"/>
    <trip id="325" depart="395" from="edge-1-0" to="edge-0-4"/>
    <trip id="326" depart="396" from="edge-1-0" to="edge-0-2"/>
    <trip id="327" depart="398" from="edge-4-0" to="edge-0-2"/>
    <trip id="328" depart="400" from="edge-2-0" to="edge-0-1"/>
    <trip id="329" depart="403" from="edge-3-0" to="edge-0-2"/>
    <trip id="330" depart="405" from="edge-2-0" to="edge-0-4"/>
    <trip id="331" depart="410" from="edge-1-0" to="edge-0-4"/>
    <trip id="332" depart="410" from="edge-4-0" to="edge-0-1"/>
    <trip id="333" depart="411" from="edge-4-0" to="edge-0-1"/>
    <trip id="334" depart="412" from="edge-1-0" to="edge-0-2"/>
    <trip id="335" depart="413" from="edge-1-0" to="edge-0-3"/>
    <trip id="336" depart="414" from="edge-2-0" to="edge-0-1"/>
    <trip id="337" depart="415" from="edge-4-0" to="edge-0-2"/>
    <trip id="338" depart="416" from="edge-1-0" to="edge-0-4"/>
    <trip id="339" depart="416" from="edge-2-0" to="edge-0-4"/>
    <trip id="340" depart="416" from="edge-4-0" to="edge-0-1"/>
    <trip id="341" depart="417" from="edge-2-0" to="edge-0-1"/>
    <trip id="342" depart="417" from="edge-3-0" to="edge-0-2"/>
    <trip id="343" depart="419" from="edge-1-0" to="edge-0-4"/>
    <trip id="344" depart="421" from="edge-4-0" to="edge-0-1"/>
    <trip id="345" depart="422" from="edge-1-0" to="edge-0-4"/>
    <trip id="346" depart="422" from="edge-2-0" to="edge-0-4"/>
    <trip id="347" depart="423" from="edge-4-0" to="edge-0-3"/>
    <trip id="348" depart="427" from="edge-4-0" to="edge-0-1"/>
    <trip id="349" depart="429" from="edge-1-0" to="edge-0-3"/>
    <trip id="350" depart="431" from="edge-2-0" to="edge-0-1"/>
    <trip id="351" depart="431" from="edge-3-0" to="edge-0-4"/>
    <trip id="352" depart="432" from="edge-2-0" to="edge-0-4"/>
    <trip id="353" depart="434" from="edge-4-0" to="edge-0-1"/>
    <trip id="354" depart="435" from="edge-1-0" to="edge-0-2"/>
    <trip id="355" depart="436" from="edge-2-0" to="edge-0-3"/>
    <trip id="356" depart="436" from="edge-4-0" to="edge-0-2"/>
    <trip id="357" depart="437" from="edge-2-0" to="edge-0-3"/>
    <trip id="358" depart="438" from="edge-1-0" to="edge-0-3"/>
    <trip id="359" depart="438" from="edge-2-0" to="edge-0-1"/>
    <trip id="360" depart="441" from="edge-1-0" to="edge-0-2"/>
    <trip id="361" depart="441" from="edge-3-0" to="edge-0-2"/>
    <trip id="362" depart="442" from="edge-1-0" to="edge-0-2"/>
    <trip id="363" depart="442" from="edge-4-0" to="edge-0-1"/>
    <trip id="364" depart="443" from="edge-3-0" to="edge-0-1"/>
    <trip id="365" depart="445" from="edge-1-0" to="edge-0-2"/>
    <trip id="366" depart="446" from="edge-1-0" to="edge-0-4"/>
    <trip id="367" depart="446" from="edge-2-0" to="edge-0-3"/>
    <trip id="368" depart="448" from="edge-4-0" to="edge-0-3"/>
    <trip id="369" depart="449" from="edge-4-0" to="edge-0-3"/>
    <trip id="370" depart="450" from="edge-1-0" to="edge-0-4"/>
    <trip id="371" depart="450" from="edge-2-0" to="edge-0-1"/>
    <trip id="372" depart="451" from="edge-1-0" to="edge-0-2"/>
    <trip id="373" depart="452" from="edge-1-0" to="edge-0-4"/>
    <trip id="374" depart="453" from="edge-1-0" to="edge-0-2"/>
    <trip id="375" depart="455" from="edge-1-0" to="edge-0-2"/>
    <trip id="376" depart="456" from="edge-3-0" to="edge-0-1"/>
    <trip id="377" depart="457" from="edge-1-0" to="edge-0-2"/>
    <trip id="378" depart="458" from="edge-2-0" to="edge-0-4"/>
    <trip id="379" depart="459" from="edge-3-0" to="edge-0-1"/>
    <trip id="380" depart="460" from="edge-1-0" to="edge-0-2"/>
    <trip id="381" depart="461" from="edge-1-0" to="edge-0-2"/>
    <trip id="382" depart="461" from="edge-2-0" to="edge-0-4"/>
    <trip id="383" depart="462" from="edge-4-0" to="edge-0-3"/>
    <trip id="384" depart="464" from="edge-4-0" to="edge-0-2"/>
    <trip id="385" depart="466" from="edge-2-0" to="edge-0-4"/>
    <trip id="386" depart="466" from="edge-3-0" to="edge-0-2"/>
    <trip id="387" depart="466" from="edge-4-0" to="edge-0-3"/>
    <trip id="388" depart="467" from="edge-2-0" to="edge-0-4"/>
    <trip id="389" depart="470" from="edge-4-0" to="edge-0-2"/>
    <trip id="390" depart="471" from="edge-3-0" to="edge-0-1"/>
    <trip id="391" depart="472" from="edge-1-0" to="edge-0-2"/>
    <trip id="392" depart="473" from="edge-1-0" to="edge-0-2"/>
    <trip id="393" depart="475" from="edge-1-0" to="edge-0-4"/>
    <trip id="394" depart="476" from="edge-1-0" to="edge-0-2"/>
    <trip id="395" depart="476" from="edge-4-0" to="edge-0-3"/>
    <trip id="396" depart="478" from="edge-1-0" to="edge-0-4"/>
    <trip id="397" depart="478" from="edge-4-0" to="edge-0-3"/>
    <trip id="398" depart="479" from="edge-4-0" to="edge-0-1"/>
    <trip id="399" depart="480" from="edge-1-0" to="edge-0-3"/>
    <trip id="400" depart="480" from="edge-2-0" to="edge-0-4"/>
    <trip id="401" depart="483" from="edge-3-0" to="edge-0-4"/>
    <trip id="402" depart="484" from="edge-3-0" to="edge-0-4"/>
    <trip id="403" depart="484" from="edge-4-0" to="edge-0-2"/>
    <trip id="404" depart="485" from="edge-4-0" to="edge-0-3"/>
    <trip id="405" depart="487" from="edge-2-0" to="edge-0-3"/>
    <trip id="406" depart="487" from="edge-3-0" to="edge-0-2"/>
    <trip id="407" depart="489" from="edge-1-0" to="edge-0-4"/>
    <trip id="408" depart="489" from="edge-3-0" to="edge-0-4"/>
    <trip id="409" depart="491" from="edge-1-0" to="edge-0-4"/>
    <trip id="410" depart="492" from="edge-3-0" to="edge-0-2"/>
    <trip id="411" depart="493" from="edge-2-0" to="edge-0-1"/>
    <trip id="412" depart="493" from="edge-3-0" to="edge-0-2"/>
    <trip id="413" depart="494" from="edge-1-0" to="edge-0-4"/>
    <trip id="414" depart="495" from="edge-1-0" to="edge-0-4"/>
    <trip id="415" depart="498" from="edge-3-0" to="edge-0-1"/>
    <trip id="416" depart="498" from="edge-4-0" to="edge-0-2"/>
    <trip id="417" depart="501" from="edge-1-0" to="edge-0-2"/>
    <trip id="418" depart="502" from="edge-3-0" to="edge-0-2"/>
    <trip id="419" depart="503" from="edge-2-0" to="edge-0-3"/>
    <trip id="420" depart="503" from="edge-4-0" to="edge-0-3"/>
    <trip id="421" depart="504" from="edge-2-0" to="edge-0-3"/>
    <trip id="422" depart="504" from="edge-4-0" to="edge-0-3"/>
    <trip id="423" depart="505" from="edge-3-0" to="edge-0-4"/>
    <trip id="424" depart="505" from="edge-4-0" to="edge-0-2"/>
    <trip id="425" depart="507" from="edge-1-0" to="edge-0-2"/>
    <trip id="426" depart="507" from="edge-4-0" to="edge-0-1"/>
    <trip id="427" depart="508" from="edge-1-0" to="edge-0-2"/>
    <trip id="428" depart="509" from="edge-2-0" to="edge-0-1"/>
    <trip id="429" depart="510" from="edge-4-0" to="edge-0-2"/>
    <trip id="430" depart="511" from="edge-2-0" to="edge-0-1"/>
    <trip id="431" depart="511" from="edge-4-0" to="edge-0-2"/>
    <trip id="432" depart="512" from="edge-1-0" to="edge-0-4"/>
    <trip id="433" depart="513" from="edge-3-0" to="edge-0-1"/>
    <trip id="434" depart="513" from="edge-4-0" to="edge-0-3"/>
    <trip id="435" depart="514" from="edge-3-0" to="edge-0-1"/>
    <trip id="436" depart="515" from="edge-3-0" to="edge-0-4"/>
    <trip id="437" depart="515" from="edge-4-0" to="edge-0-1"/>
    <trip id="438" depart="516" from="edge-3-0" to="edge-0-1"/>
    <trip id="439" depart="516" from="edge-4-0" to="edge-0-1"/>
    <trip id="440" depart="517" from="edge-1-0" to="edge-0-4"/>
    <trip id="441" depart="519" from="edge-2-0" to="edge-0-4"/>
    <trip id="442" depart="520" from="edge-3-0" to="edge-0-2"/>
    <trip id="443" depart="523" from="edge-4-0" to="edge-0-2"/>
    <trip id="444" depart="524" from="edge-2-0" to="edge-0-4"/>
    <trip id="445" depart="525" from="edge-1-0" to="edge-0-3"/>
    <trip id="446" depart="526" from="edge-2-0" to="edge-0-4"/>
    <trip id="447" depart="528" from="edge-2-0" to="edge-0-3"/>
    <trip id="448" depart="529" from="edge-2-0" to="edge-0-1"/>
    <trip id="449" depart="532" from="edge-2-0" to="edge-0-3"/>
    <trip id="450" depart="533" from="edge-1-0" to="edge-0-2"/>
    <trip id="451" depart="533" from="edge-2-0" to="edge-0-4"/>
    <trip id="452" depart="534" from="edge-3-0" to="edge-0-1"/>
    <trip id="453" depart="535" from="edge-2-0" to="edge-0-4"/>
    <trip id="454" depart="539" from="edge-2-0" to="edge-0-3"/>
    <trip id="455" depart="539" from="edge-3-0" to="edge-0-1"/>
    <trip id="456" depart="542" from="edge-4-0" to="edge-0-2"/>
    <trip id="457" depart="543" from="edge-1-0" to="edge-0-4"/>
    <trip id="458" depart="544" from="edge-4-0" to="edge-0-2"/>
    <trip id="459" depart="546" from="edge-4-0" to="edge-0-2"/>
    <trip id="460" depart="547" from="edge-1-0" to="edge-0-4"/>
    <trip id="461" depart="548" from="edge-2-0" to="edge-0-3"/>
    <trip id="462" depart="549" from="edge-1-0" to="edge-0-2"/>
    <trip id="463" depart="549" from="edge-2-0" to="edge-0-3"/>
    <trip id="464" depart="552" from="edge-3-0" to="edge-0-2"/>
    <trip id="465" depart="553" from="edge-3-0" to="edge-0-1"/>
    <trip id="466" depart="554" from="edge-1-0" to="edge-0-4"/>
    <trip id="467" depart="555" from="edge-4-0" to="edge-0-1"/>
    <trip id="468" depart="556" from="edge-4-0" to="edge-0-2"/>