<?xml version="1.0" encoding="UTF-8"?>

<!-- generated on 09/28/18 10:57:24 by SUMO netconvert Version 0.32.0
<?xml version="1.0" encoding="UTF-8"?>

<configuration xmlns:xsi="http://www.w3.org/2001/XMLSchema-instance" xsi:noNamespaceSchemaLocation="http://sumo.dlr.de/xsd/netconvertConfiguration.xsd">

    <input>
        <node-files value="map1.nod.xml"/>
        <edge-files value="map1.edg.xml"/>
        <connection-files value="map1.con.xml"/>
    </input>

    <output>
        <output-file value="cross.net.xml"/>
    </output>

</configuration>
-->

<net version="0.27" xmlns:xsi="http://www.w3.org/2001/XMLSchema-instance" xsi:noNamespaceSchemaLocation="http://sumo.dlr.de/xsd/net_file.xsd">

    <location netOffset="145.00,145.00" convBoundary="0.00,0.00,290.00,290.00" origBoundary="-145.00,-145.00,145.00,145.00" projParameter="!"/>

    <edge id=":0_0" function="internal">
        <lane id=":0_0_0" index="0" speed="40.00" length="5.00" shape="133.45,159.65 133.26,158.29 132.68,157.32 131.71,156.74 130.35,156.55"/>
    </edge>
    <edge id=":0_1" function="internal">
        <lane id=":0_1_0" index="0" speed="40.00" length="29.30" shape="133.45,159.65 133.45,130.35"/>
        <lane id=":0_1_1" index="1" speed="40.00" length="29.30" shape="136.75,159.65 136.75,130.35"/>
        <lane id=":0_1_2" index="2" speed="40.00" length="29.30" shape="140.05,159.65 140.05,130.35"/>
    </edge>
    <edge id=":0_4" function="internal">
        <lane id=":0_4_0" index="0" speed="40.00" length="14.22" shape="143.35,159.65 144.37,152.52 147.42,147.42 148.35,146.87"/>
    </edge>
    <edge id=":0_20" function="internal">
        <lane id=":0_20_0" index="0" speed="40.00" length="12.07" shape="148.35,146.87 152.52,144.37 159.65,143.35"/>
    </edge>
    <edge id=":0_5" function="internal">
        <lane id=":0_5_0" index="0" speed="40.00" length="5.00" shape="159.65,156.55 158.29,156.74 157.32,157.32 156.74,158.29 156.55,159.65"/>
    </edge>
    <edge id=":0_6" function="internal">
        <lane id=":0_6_0" index="0" speed="40.00" length="29.30" shape="159.65,156.55 130.35,156.55"/>
        <lane id=":0_6_1" index="1" speed="40.00" length="29.30" shape="159.65,153.25 130.35,153.25"/>
        <lane id=":0_6_2" index="2" speed="40.00" length="29.30" shape="159.65,149.95 130.35,149.95"/>
    </edge>
    <edge id=":0_9" function="internal">
        <lane id=":0_9_0" index="0" speed="40.00" length="14.22" shape="159.65,146.65 152.52,145.63 147.42,142.58 146.87,141.65"/>
    </edge>
    <edge id=":0_21" function="internal">
        <lane id=":0_21_0" index="0" speed="40.00" length="12.07" shape="146.87,141.65 144.37,137.48 143.35,130.35"/>
    </edge>
    <edge id=":0_10" function="internal">
        <lane id=":0_10_0" index="0" speed="40.00" length="5.00" shape="156.55,130.35 156.74,131.71 157.32,132.68 158.29,133.26 159.65,133.45"/>
    </edge>
    <edge id=":0_11" function="internal">
        <lane id=":0_11_0" index="0" speed="40.00" length="29.30" shape="156.55,130.35 156.55,159.65"/>
        <lane id=":0_11_1" index="1" speed="40.00" length="29.30" shape="153.25,130.35 153.25,159.65"/>
        <lane id=":0_11_2" index="2" speed="40.00" length="29.30" shape="149.95,130.35 149.95,159.65"/>
    </edge>
    <edge id=":0_14" function="internal">
        <lane id=":0_14_0" index="0" speed="40.00" length="14.22" shape="146.65,130.35 145.63,137.48 142.58,142.58 141.65,143.13"/>
    </edge>
    <edge id=":0_22" function="internal">
        <lane id=":0_22_0" index="0" speed="40.00" length="12.07" shape="141.65,143.13 137.48,145.63 130.35,146.65"/>
    </edge>
    <edge id=":0_15" function="internal">
        <lane id=":0_15_0" index="0" speed="40.00" length="5.00" shape="130.35,133.45 131.71,133.26 132.68,132.68 133.26,131.71 133.45,130.35"/>
    </edge>
    <edge id=":0_16" function="internal">
        <lane id=":0_16_0" index="0" speed="40.00" length="29.30" shape="130.35,133.45 159.65,133.45"/>
        <lane id=":0_16_1" index="1" speed="40.00" length="29.30" shape="130.35,136.75 159.65,136.75"/>
        <lane id=":0_16_2" index="2" speed="40.00" length="29.30" shape="130.35,140.05 159.65,140.05"/>
    </edge>
    <edge id=":0_19" function="internal">
        <lane id=":0_19_0" index="0" speed="40.00" length="14.22" shape="130.35,143.35 137.48,144.37 142.58,147.42 143.13,148.35"/>
    </edge>
    <edge id=":0_23" function="internal">
        <lane id=":0_23_0" index="0" speed="40.00" length="12.07" shape="143.13,148.35 145.63,152.52 146.65,159.65"/>
    </edge>

    <edge id="edge-0-1" from="0" to="1" priority="75">
        <lane id="edge-0-1_0" index="0" speed="40.00" length="130.35" shape="130.35,156.55 0.00,156.55"/>
        <lane id="edge-0-1_1" index="1" speed="40.00" length="130.35" shape="130.35,153.25 0.00,153.25"/>
        <lane id="edge-0-1_2" index="2" speed="40.00" length="130.35" shape="130.35,149.95 0.00,149.95"/>
        <lane id="edge-0-1_3" index="3" speed="40.00" length="130.35" shape="130.35,146.65 0.00,146.65"/>
    </edge>
    <edge id="edge-0-2" from="0" to="2" priority="75">
        <lane id="edge-0-2_0" index="0" speed="40.00" length="130.35" shape="159.65,133.45 290.00,133.45"/>
        <lane id="edge-0-2_1" index="1" speed="40.00" length="130.35" shape="159.65,136.75 290.00,136.75"/>
        <lane id="edge-0-2_2" index="2" speed="40.00" length="130.35" shape="159.65,140.05 290.00,140.05"/>
        <lane id="edge-0-2_3" index="3" speed="40.00" length="130.35" shape="159.65,143.35 290.00,143.35"/>
    </edge>
    <edge id="edge-0-3" from="0" to="3" priority="75">
        <lane id="edge-0-3_0" index="0" speed="40.00" length="130.35" shape="133.45,130.35 133.45,0.00"/>
        <lane id="edge-0-3_1" index="1" speed="40.00" length="130.35" shape="136.75,130.35 136.75,0.00"/>
        <lane id="edge-0-3_2" index="2" speed="40.00" length="130.35" shape="140.05,130.35 140.05,0.00"/>
        <lane id="edge-0-3_3" index="3" speed="40.00" length="130.35" shape="143.35,130.35 143.35,0.00"/>
    </edge>
    <edge id="edge-0-4" from="0" to="4" priority="75">
        <lane id="edge-0-4_0" index="0" speed="40.00" length="130.35" shape="156.55,159.65 156.55,290.00"/>
        <lane id="edge-0-4_1" index="1" speed="40.00" length="130.35" shape="153.25,159.65 153.25,290.00"/>
        <lane id="edge-0-4_2" index="2" speed="40.00" length="130.35" shape="149.95,159.65 149.95,290.00"/>
        <lane id="edge-0-4_3" index="3" speed="40.00" length="130.35" shape="146.65,159.65 146.65,290.00"/>
    </edge>
    <edge id="edge-1-0" from="1" to="0" priority="75">
        <lane id="edge-1-0_0" index="0" speed="40.00" length="130.35" shape="0.00,133.45 130.35,133.45"/>
        <lane id="edge-1-0_1" index="1" speed="40.00" length="130.35" shape="0.00,136.75 130.35,136.75"/>
        <lane id="edge-1-0_2" index="2" speed="40.00" length="130.35" shape="0.00,140.05 130.35,140.05"/>
        <lane id="edge-1-0_3" index="3" speed="40.00" length="130.35" shape="0.00,143.35 130.35,143.35"/>
    </edge>
    <edge id="edge-2-0" from="2" to="0" priority="75">
        <lane id="edge-2-0_0" index="0" speed="40.00" length="130.35" shape="290.00,156.55 159.65,156.55"/>
        <lane id="edge-2-0_1" index="1" speed="40.00" length="130.35" shape="290.00,153.25 159.65,153.25"/>
        <lane id="edge-2-0_2" index="2" speed="40.00" length="130.35" shape="290.00,149.95 159.65,149.95"/>
        <lane id="edge-2-0_3" index="3" speed="40.00" length="130.35" shape="290.00,146.65 159.65,146.65"/>
    </edge>
    <edge id="edge-3-0" from="3" to="0" priority="75">
        <lane id="edge-3-0_0" index="0" speed="40.00" length="130.35" shape="156.55,0.00 156.55,130.35"/>
        <lane id="edge-3-0_1" index="1" speed="40.00" length="130.35" shape="153.25,0.00 153.25,130.35"/>
        <lane id="edge-3-0_2" index="2" speed="40.00" length="130.35" shape="149.95,0.00 149.95,130.35"/>
        <lane id="edge-3-0_3" index="3" speed="40.00" length="130.35" shape="146.65,0.00 146.65,130.35"/>
    </edge>
    <edge id="edge-4-0" from="4" to="0" priority="75">
        <lane id="edge-4-0_0" index="0" speed="40.00" length="130.35" shape="133.45,290.00 133.45,159.65"/>
        <lane id="edge-4-0_1" index="1" speed="40.00" length="130.35" shape="136.75,290.00 136.75,159.65"/>
        <lane id="edge-4-0_2" index="2" speed="40.00" length="130.35" shape="140.05,290.00 140.05,159.65"/>
        <lane id="edge-4-0_3" index="3" speed="40.00" length="130.35" shape="143.35,290.00 143.35,159.65"/>
    </edge>

    <tlLogic id="0" type="static" programID="0" offset="0">
        <phase duration="23" state="GGGGgrrrrrGGGGgrrrrr"/>
        <phase duration="8" state="yyyygrrrrryyyygrrrrr"/>
        <phase duration="6" state="rrrrGrrrrrrrrrGrrrrr"/>
        <phase duration="8" state="rrrryrrrrrrrrryrrrrr"/>
        <phase duration="23" state="rrrrrGGGGgrrrrrGGGGg"/>
        <phase duration="8" state="rrrrryyyygrrrrryyyyg"/>
        <phase duration="6" state="rrrrrrrrrGrrrrrrrrrG"/>
        <phase duration="8" state="rrrrrrrrryrrrrrrrrry"/>
    </tlLogic>

    <junction id="0" type="traffic_light" x="145.00" y="145.00" incLanes="edge-4-0_0 edge-4-0_1 edge-4-0_2 edge-4-0_3 edge-2-0_0 edge-2-0_1 edge-2-0_2 edge-2-0_3 edge-3-0_0 edge-3-0_1 edge-3-0_2 edge-3-0_3 edge-1-0_0 edge-1-0_1 edge-1-0_2 edge-1-0_3" intLanes=":0_0_0 :0_1_0 :0_1_1 :0_1_2 :0_20_0 :0_5_0 :0_6_0 :0_6_1 :0_6_2 :0_21_0 :0_10_0 :0_11_0 :0_11_1 :0_11_2 :0_22_0 :0_15_0 :0_16_0 :0_16_1 :0_16_2 :0_23_0" shape="131.85,159.65 158.15,159.65 159.65,158.15 159.65,131.85 158.15,130.35 131.85,130.35 130.35,131.85 130.35,158.15">
        <request index="0" response="00000000000000000000" foes="00000100000111000000" cont="0"/>
        <request index="1" response="00000000000000000000" foes="11111100001111000000" cont="0"/>
        <request index="2" response="00000000000000000000" foes="11111100001111000000" cont="0"/>
        <request index="3" response="00000000000000000000" foes="11111100001111000000" cont="0"/>
        <request index="4" response="00000011110000000000" foes="11110011111111000000" cont="1"/>
        <request index="5" response="00000011100000000000" foes="10000011100000000000" cont="0"/>
        <request index="6" response="00000111100000011111" foes="10000111100000011111" cont="0"/>
        <request index="7" response="00000111100000011111" foes="10000111100000011111" cont="0"/>
        <request index="8" response="00000111100000011111" foes="10000111100000011111" cont="0"/>
        <request index="9" response="01111111100000011110" foes="01111111100000011110" cont="1"/>
        <request index="10" response="00000000000000000000" foes="01110000000000010000" cont="0"/>
        <request index="11" response="00000000000000000000" foes="11110000001111110000" cont="0"/>
        <request index="12" response="00000000000000000000" foes="11110000001111110000" cont="0"/>
        <request index="13" response="00000000000000000000" foes="11110000001111110000" cont="0"/>
        <request index="14" response="00000000000000001111" foes="11110000001111001111" cont="1"/>
        <request index="15" response="00000000000000001110" foes="00000000001000001110" cont="0"/>
        <request index="16" response="00000111110000011110" foes="00000111111000011110" cont="0"/>
        <request index="17" response="00000111110000011110" foes="00000111111000011110" cont="0"/>
        <request index="18" response="00000111110000011110" foes="00000111111000011110" cont="0"/>
        <request index="19" response="00000111100111111110" foes="00000111100111111110" cont="1"/>
    </junction>
    <junction id="1" type="dead_end" x="0.00" y="145.00" incLanes="edge-0-1_0 edge-0-1_1 edge-0-1_2 edge-0-1_3" intLanes="" shape="0.00,144.95 0.00,158.15 0.00,145.05"/>
    <junction id="2" type="dead_end" x="290.00" y="145.00" incLanes="edge-0-2_0 edge-0-2_1 edge-0-2_2 edge-0-2_3" intLanes="" shape="290.00,145.05 290.00,131.85 290.00,144.95"/>
    <junction id="3" type="dead_end" x="145.00" y="0.00" incLanes="edge-0-3_0 edge-0-3_1 edge-0-3_2 edge-0-3_3" intLanes="" shape="145.05,0.00 131.85,0.00 144.95,0.00"/>
    <junction id="4" type="dead_end" x="145.00" y="290.00" incLanes="edge-0-4_0 edge-0-4_1 edge-0-4_2 edge-0-4_3" intLanes="" shape="144.95,290.00 158.15,290.00 145.05,290.00"/>

    <junction id=":0_20_0" type="internal" x="148.35" y="146.87" incLanes=":0_4_0 edge-3-0_0 edge-3-0_1 edge-3-0_2" intLanes=":0_6_0 :0_6_1 :0_6_2 :0_9_0 :0_10_0 :0_11_0 :0_11_1 :0_11_2 :0_16_0 :0_16_1 :0_16_2 :0_19_0"/>
    <junction id=":0_21_0" type="internal" x="146.87" y="141.65" incLanes=":0_9_0 edge-1-0_0 edge-1-0_1 edge-1-0_2" intLanes=":0_1_0 :0_1_1 :0_1_2 :0_4_0 :0_11_0 :0_11_1 :0_11_2 :0_14_0 :0_15_0 :0_16_0 :0_16_1 :0_16_2"/>
    <junction id=":0_22_0" type="internal" x="141.65" y="143.13" incLanes=":0_14_0 edge-4-0_0 edge-4-0_1 edge-4-0_2" intLanes=":0_0_0 :0_1_0 :0_1_1 :0_1_2 :0_6_0 :0_6_1 :0_6_2 :0_9_0 :0_16_0 :0_16_1 :0_16_2 :0_19_0"/>
    <junction id=":0_23_0" type="internal" x="143.13" y="148.35" incLanes=":0_19_0 edge-2-0_0 edge-2-0_1 edge-2-0_2" intLanes=":0_1_0 :0_1_1 :0_1_2 :0_4_0 :0_5_0 :0_6_0 :0_6_1 :0_6_2 :0_11_0 :0_11_1 :0_11_2 :0_14_0"/>

    <connection from="edge-1-0" to="edge-0-3" fromLane="0" toLane="0" via=":0_15_0" tl="0" linkIndex="15" dir="r" state="o"/>
    <connection from="edge-1-0" to="edge-0-2" fromLane="0" toLane="0" via=":0_16_0" tl="0" linkIndex="16" dir="s" state="o"/>
    <connection from="edge-1-0" to="edge-0-2" fromLane="1" toLane="1" via=":0_16_1" tl="0" linkIndex="17" dir="s" state="o"/>
    <connection from="edge-1-0" to="edge-0-2" fromLane="2" toLane="2" via=":0_16_2" tl="0" linkIndex="18" dir="s" state="o"/>
    <connection from="edge-1-0" to="edge-0-4" fromLane="3" toLane="3" via=":0_19_0" tl="0" linkIndex="19" dir="l" state="o"/>
    <connection from="edge-2-0" to="edge-0-4" fromLane="0" toLane="0" via=":0_5_0" tl="0" linkIndex="5" dir="r" state="o"/>
    <connection from="edge-2-0" to="edge-0-1" fromLane="0" toLane="0" via=":0_6_0" tl="0" linkIndex="6" dir="s" state="o"/>
    <connection from="edge-2-0" to="edge-0-1" fromLane="1" toLane="1" via=":0_6_1" tl="0" linkIndex="7" dir="s" state="o"/>
    <connection from="edge-2-0" to="edge-0-1" fromLane="2" toLane="2" via=":0_6_2" tl="0" linkIndex="8" dir="s" state="o"/>
    <connection from="edge-2-0" to="edge-0-3" fromLane="3" toLane="3" via=":0_9_0" tl="0" linkIndex="9" dir="l" state="o"/>
    <connection from="edge-3-0" to="edge-0-2" fromLane="0" toLane="0" via=":0_10_0" tl="0" linkIndex="10" dir="r" state="o"/>
    <connection from="edge-3-0" to="edge-0-4" fromLane="0" toLane="0" via=":0_11_0" tl="0" linkIndex="11" dir="s" state="o"/>
    <connection from="edge-3-0" to="edge-0-4" fromLane="1" toLane="1" via=":0_11_1" tl="0" linkIndex="12" dir="s" state="o"/>
    <connection from="edge-3-0" to="edge-0-4" fromLane="2" toLane="2" via=":0_11_2" tl="0" linkIndex="13" dir="s" state="o"/>
    <connection from="edge-3-0" to="edge-0-1" fromLane="3" toLane="3" via=":0_14_0" tl="0" linkIndex="14" dir="l" state="o"/>
    <connection from="edge-4-0" to="edge-0-1" fromLane="0" toLane="0" via=":0_0_0" tl="0" linkIndex="0" dir="r" state="o"/>
    <connection from="edge-4-0" to="edge-0-3" fromLane="0" toLane="0" via=":0_1_0" tl="0" linkIndex="1" dir="s" state="o"/>
    <connection from="edge-4-0" to="edge-0-3" fromLane="1" toLane="1" via=":0_1_1" tl="0" linkIndex="2" dir="s" state="o"/>
    <connection from="edge-4-0" to="edge-0-3" fromLane="2" toLane="2" via=":0_1_2" tl="0" linkIndex="3" dir="s" state="o"/>
    <connection from="edge-4-0" to="edge-0-2" fromLane="3" toLane="3" via=":0_4_0" tl="0" linkIndex="4" dir="l" state="o"/>

    <connection from=":0_0" to="edge-0-1" fromLane="0" toLane="0" dir="r" state="M"/>
    <connection from=":0_1" to="edge-0-3" fromLane="0" toLane="0" dir="s" state="M"/>
    <connection from=":0_1" to="edge-0-3" fromLane="1" toLane="1" dir="s" state="M"/>
    <connection from=":0_1" to="edge-0-3" fromLane="2" toLane="2" dir="s" state="M"/>
    <connection from=":0_4" to="edge-0-2" fromLane="0" toLane="3" via=":0_20_0" dir="l" state="m"/>
    <connection from=":0_20" to="edge-0-2" fromLane="0" toLane="3" dir="l" state="M"/>
    <connection from=":0_5" to="edge-0-4" fromLane="0" toLane="0" dir="r" state="M"/>
    <connection from=":0_6" to="edge-0-1" fromLane="0" toLane="0" dir="s" state="M"/>
    <connection from=":0_6" to="edge-0-1" fromLane="1" toLane="1" dir="s" state="M"/>
    <connection from=":0_6" to="edge-0-1" fromLane="2" toLane="2" dir="s" state="M"/>
    <connection from=":0_9" to="edge-0-3" fromLane="0" toLane="3" via=":0_21_0" dir="l" state="m"/>
    <connection from=":0_21" to="edge-0-3" fromLane="0" toLane="3" dir="l" state="M"/>
    <connection from=":0_10" to="edge-0-2" fromLane="0" toLane="0" dir="r" state="M"/>
    <connection from=":0_11" to="edge-0-4" fromLane="0" toLane="0" dir="s" state="M"/>
    <connection from=":0_11" to="edge-0-4" fromLane="1" toLane="1" dir="s" state="M"/>
    <connection from=":0_11" to="edge-0-4" fromLane="2" toLane="2" dir="s" state="M"/>
    <connection from=":0_14" to="edge-0-1" fromLane="0" toLane="3" via=":0_22_0" dir="l" state="m"/>
    <connection from=":0_22" to="edge-0-1" fromLane="0" toLane="3" dir="l" state="M"/>
    <connection from=":0_15" to="edge-0-3" fromLane="0" toLane="0" dir="r" state="M"/>
    <connection from=":0_16" to="edge-0-2" fromLane="0" toLane="0" dir="s" state="M"/>
    <connection from=":0_16" to="edge-0-2" fromLane="1" toLane="1" dir="s" state="M"/>
    <connection from=":0_16" to="edge-0-2" fromLane="2" toLane="2" dir="s" state="M"/>
    <connection from=":0_19" to="edge-0-4" fromLane="0" toLane="3" via=":0_23_0" dir="l" state="m"/>
    <connection from=":0_23" to="edge-0-4" fromLane="0" toLane="3" dir="l" state="M"/>

</net>
